Circuit: * CMOS NAND Gate

Va: Missing value, assumed 0V @ DC

Date: Mon Apr 23 02:35:05 2018
Total elapsed time: 0.220 seconds.

tnom = 27
temp = 27
method = trap
totiter = 1035
traniter = 0
tranpoints = 0
accept = 0
rejected = 0
matrix size = 8
fillins = 0
solver = Normal
Matrix Compiler1:      16 opcodes  0.2/[0.1]/0.1
Matrix Compiler2: 648 bytes object code size  0.2/0.2/[0.1]

