Circuit: * Title : CMOS NOR Gate

Instance "m4": Length shorter than recommended for a level 1 MOSFET.
Instance "m4": Width narrower than recommended for a level 1 MOSFET.
Instance "m3": Length shorter than recommended for a level 1 MOSFET.
Instance "m3": Width narrower than recommended for a level 1 MOSFET.
Instance "m2": Length shorter than recommended for a level 1 MOSFET.
Instance "m2": Width narrower than recommended for a level 1 MOSFET.
Instance "m1": Length shorter than recommended for a level 1 MOSFET.
Instance "m1": Width narrower than recommended for a level 1 MOSFET.
Vga: Missing value, assumed 0V @ DC

Date: Mon Apr 23 09:43:44 2018
Total elapsed time: 0.130 seconds.

tnom = 27
temp = 27
method = trap
totiter = 246
traniter = 0
tranpoints = 0
accept = 0
rejected = 0
matrix size = 8
fillins = 0
solver = Normal
Matrix Compiler1: 300 bytes object code size  0.2/0.2/[0.1]
Matrix Compiler2: 676 bytes object code size  0.2/0.2/[0.1]

