Circuit: * Pseudo NOR Gate

Va: Missing value, assumed 0V @ DC

Date: Mon Apr 23 02:02:58 2018
Total elapsed time: 0.050 seconds.

tnom = 27
temp = 27
method = trap
totiter = 1015
traniter = 0
tranpoints = 0
accept = 0
rejected = 0
matrix size = 7
fillins = 0
solver = Normal
Matrix Compiler1: 178 bytes object code size  0.1/0.1/[0.0]
Matrix Compiler2: 427 bytes object code size  0.1/0.1/[0.1]

