Circuit: * Pseudo NAND Gate

Va: Missing value, assumed 0V @ DC

Date: Mon Apr 23 02:54:42 2018
Total elapsed time: 0.170 seconds.

tnom = 27
temp = 27
method = trap
totiter = 1011
traniter = 0
tranpoints = 0
accept = 0
rejected = 0
matrix size = 8
fillins = 0
solver = Normal
Matrix Compiler1: 228 bytes object code size  0.1/0.1/[0.0]
Matrix Compiler2: 540 bytes object code size  0.2/0.2/[0.1]

