Circuit: * Pseudo NOR Gate with pulse input

Direct Newton iteration for .op point succeeded.

Date: Mon Apr 23 03:04:13 2018
Total elapsed time: 0.110 seconds.

tnom = 27
temp = 27
method = modified trap
totiter = 3624
traniter = 3613
tranpoints = 1728
accept = 1555
rejected = 173
matrix size = 7
fillins = 0
solver = Normal
Matrix Compiler1:      11 opcodes  0.1/[0.0]/0.1
Matrix Compiler2: 427 bytes object code size  0.2/0.2/[0.1]

