Circuit: *Pulse input CMOS NAND Gate

Instance "m4": Length shorter than recommended for a level 1 MOSFET.
Instance "m4": Width narrower than recommended for a level 1 MOSFET.
Instance "m3": Length shorter than recommended for a level 1 MOSFET.
Instance "m3": Width narrower than recommended for a level 1 MOSFET.
Instance "m2": Length shorter than recommended for a level 1 MOSFET.
Instance "m2": Width narrower than recommended for a level 1 MOSFET.
Instance "m1": Length shorter than recommended for a level 1 MOSFET.
Instance "m1": Width narrower than recommended for a level 1 MOSFET.
Direct Newton iteration for .op point succeeded.
Heightened Def Con from 3.00052e-008 to 3.00052e-008
Heightened Def Con from 3.00052e-008 to 3.00052e-008
Heightened Def Con from 3.0015e-008 to 3.0015e-008
Heightened Def Con from 7.00052e-008 to 7.00052e-008
Heightened Def Con from 7.00052e-008 to 7.00052e-008
Heightened Def Con from 7.0015e-008 to 7.0015e-008
Heightened Def Con from 1.10005e-007 to 1.10005e-007
Heightened Def Con from 1.10005e-007 to 1.10005e-007
Heightened Def Con from 1.10015e-007 to 1.10015e-007
Heightened Def Con from 1.50005e-007 to 1.50005e-007
Heightened Def Con from 1.50005e-007 to 1.50005e-007
Heightened Def Con from 1.50015e-007 to 1.50015e-007
Heightened Def Con from 1.90005e-007 to 1.90005e-007
Heightened Def Con from 1.90005e-007 to 1.90005e-007
Heightened Def Con from 1.90015e-007 to 1.90015e-007

Date: Mon Apr 23 09:42:38 2018
Total elapsed time: 0.200 seconds.

tnom = 27
temp = 27
method = modified trap
totiter = 12545
traniter = 12539
tranpoints = 3218
accept = 2588
rejected = 645
matrix size = 8
fillins = 0
solver = Normal
Matrix Compiler1: 264 bytes object code size  0.1/0.1/[0.1]
Matrix Compiler2: 648 bytes object code size  0.1/0.2/[0.1]

