Circuit: * Title : CMOS NOR Gate

Instance "m4": Length shorter than recommended for a level 1 MOSFET.
Instance "m4": Width narrower than recommended for a level 1 MOSFET.
Instance "m3": Length shorter than recommended for a level 1 MOSFET.
Instance "m3": Width narrower than recommended for a level 1 MOSFET.
Instance "m2": Length shorter than recommended for a level 1 MOSFET.
Instance "m2": Width narrower than recommended for a level 1 MOSFET.
Instance "m1": Length shorter than recommended for a level 1 MOSFET.
Instance "m1": Width narrower than recommended for a level 1 MOSFET.
Direct Newton iteration for .op point succeeded.
Heightened Def Con from 4e-012 to 4.00147e-012
Heightened Def Con from 4.0004e-008 to 4.0004e-008
Heightened Def Con from 7.00152e-008 to 7.00152e-008
Heightened Def Con from 8.0004e-008 to 8.0004e-008
Heightened Def Con from 1.20004e-007 to 1.20004e-007
Heightened Def Con from 1.50015e-007 to 1.50015e-007
Heightened Def Con from 1.60004e-007 to 1.60004e-007
Heightened Def Con from 1.90015e-007 to 1.90015e-007

Date: Mon Apr 23 03:28:57 2018
Total elapsed time: 0.119 seconds.

tnom = 27
temp = 27
method = modified trap
totiter = 8868
traniter = 8856
tranpoints = 2499
accept = 2095
rejected = 412
matrix size = 8
fillins = 0
solver = Normal
Matrix Compiler1: 300 bytes object code size  0.2/0.2/[0.0]
Matrix Compiler2: 676 bytes object code size  0.2/0.2/[0.2]

